# generated using pymatgen
data_Mg2SiO4
_symmetry_space_group_name_H-M   'P 1'
_cell_length_a   4.75094062
_cell_length_b   5.96986766
_cell_length_c   10.18288019
_cell_angle_alpha   90.00000000
_cell_angle_beta   90.00000000
_cell_angle_gamma   90.00000000
_symmetry_Int_Tables_number   1
_chemical_formula_structural   Mg2SiO4
_chemical_formula_sum   'Mg8 Si4 O16'
_cell_volume   288.81180459
_cell_formula_units_Z   4
loop_
 _symmetry_equiv_pos_site_id
 _symmetry_equiv_pos_as_xyz
  1  'x, y, z'
loop_
 _atom_type_symbol
 _atom_type_oxidation_number
  Mg2+  2.0
  Si4+  4.0
  O2-  -2.0
loop_
 _atom_site_type_symbol
 _atom_site_label
 _atom_site_symmetry_multiplicity
 _atom_site_fract_x
 _atom_site_fract_y
 _atom_site_fract_z
 _atom_site_occupancy
  Mg2+  Mg0  1  0.00000000  0.00000000  0.00000000  1
  Mg2+  Mg1  1  0.50000000  0.00000000  0.50000000  1
  Mg2+  Mg2  1  0.00000000  0.50000000  0.00000000  1
  Mg2+  Mg3  1  0.50000000  0.50000000  0.50000000  1
  Mg2+  Mg4  1  0.00827624  0.75000000  0.27710524  1
  Mg2+  Mg5  1  0.50827624  0.25000000  0.22289476  1
  Mg2+  Mg6  1  0.99172376  0.25000000  0.72289476  1
  Mg2+  Mg7  1  0.49172376  0.75000000  0.77710524  1
  Si4+  Si8  1  0.92632995  0.75000000  0.59385785  1
  Si4+  Si9  1  0.42632995  0.25000000  0.90614215  1
  Si4+  Si10  1  0.07367005  0.25000000  0.40614215  1
  Si4+  Si11  1  0.57367005  0.75000000  0.09385785  1
  O2-  O12  1  0.27682257  0.46774158  0.83693979  1
  O2-  O13  1  0.77682257  0.53225842  0.66306021  1
  O2-  O14  1  0.72317743  0.96774158  0.16306021  1
  O2-  O15  1  0.22317743  0.03225842  0.33693979  1
  O2-  O16  1  0.72317743  0.53225842  0.16306021  1
  O2-  O17  1  0.22317743  0.46774158  0.33693979  1
  O2-  O18  1  0.27682257  0.03225842  0.83693979  1
  O2-  O19  1  0.77682257  0.96774158  0.66306021  1
  O2-  O20  1  0.77827183  0.75000000  0.44642764  1
  O2-  O21  1  0.27827183  0.25000000  0.05357236  1
  O2-  O22  1  0.22172817  0.25000000  0.55357236  1
  O2-  O23  1  0.72172817  0.75000000  0.94642764  1
  O2-  O24  1  0.26655181  0.75000000  0.59149630  1
  O2-  O25  1  0.76655181  0.25000000  0.90850370  1
  O2-  O26  1  0.73344819  0.25000000  0.40850370  1
  O2-  O27  1  0.23344819  0.75000000  0.09149630  1
